DV_KIND=NO_DEFORMATION
DV_PARAM= (0,0)
VISUALIZE_SURFACE_DEF= YES
MESH_FILENAME=M910_subsonic.su2